! DFT B3LYP DZVP def2/J RIJCOSX
%maxcore 8000

* xyz 0 1
  C       34.610000000     27.730000000     26.070000000
  H       34.680000000     27.270000000     25.090000000
  C       35.180000000     28.540000000     28.000000000
  C       35.820000000     29.050000000     29.140000000
  H       36.880000000     29.300000000     29.130000000
  C       38.130000000     30.250000000     24.620000000
  C       37.280000000     29.840000000     23.590000000
  H       36.600000000     28.990000000     23.720000000
  C       35.010000000     29.540000000     30.140000000
  H       35.480000000     30.070000000     30.970000000
  C       37.040000000     30.750000000     22.580000000
  H       36.150000000     30.620000000     21.980000000
  N       38.440000000     29.660000000     25.830000000
  N       35.700000000     28.000000000     26.830000000
  Zn      37.670000000     27.880000000     26.400000000
  C       29.770000000     30.350000000     26.420000000
  H       29.380000000     30.090000000     27.400000000
  C       30.900000000     30.260000000     24.570000000
  C       31.820000000     30.000000000     23.540000000
  H       32.550000000     29.200000000     23.610000000
  C       33.770000000     28.570000000     27.880000000
  C       32.980000000     29.180000000     28.850000000
  H       31.930000000     29.430000000     28.670000000
  C       31.920000000     30.950000000     22.540000000
  H       32.670000000     30.820000000     21.760000000
  C       33.620000000     29.650000000     29.970000000
  H       33.080000000     30.370000000     30.590000000
  N       33.420000000     28.020000000     26.660000000
  N       30.650000000     29.570000000     25.740000000
  Zn      31.480000000     27.780000000     26.150000000
  C       39.260000000     30.550000000     26.440000000
  H       39.700000000     30.370000000     27.420000000
  C       38.800000000     31.500000000     24.550000000
  C       38.680000000     32.320000000     23.420000000
  H       38.980000000     33.370000000     23.460000000
  C       38.810000000     34.880000000     27.850000000
  C       38.710000000     33.900000000     28.830000000
  H       38.910000000     32.850000000     28.610000000
  C       37.830000000     31.900000000     22.420000000
  H       37.580000000     32.590000000     21.620000000
  C       38.090000000     34.260000000     30.010000000
  H       37.730000000     33.440000000     30.630000000
  N       39.530000000     34.900000000     26.670000000
  N       39.560000000     31.640000000     25.700000000
  Zn      40.640000000     33.290000000     26.140000000
  C       39.130000000     36.030000000     26.060000000
  H       39.510000000     36.330000000     25.080000000
  C       38.100000000     36.090000000     27.960000000
  C       37.410000000     36.420000000     29.130000000
  H       36.650000000     37.210000000     29.150000000
  C       35.100000000     37.820000000     24.640000000
  C       35.850000000     37.400000000     23.550000000
  H       36.930000000     37.230000000     23.630000000
  C       37.500000000     35.530000000     30.180000000
  H       36.830000000     35.670000000     31.030000000
  C       35.160000000     36.820000000     22.500000000
  H       35.730000000     36.170000000     21.850000000
  N       35.500000000     38.400000000     25.840000000
  N       38.310000000     36.820000000     26.790000000
  Zn      37.450000000     38.600000000     26.380000000
  C       29.570000000     35.850000000     26.230000000
  H       29.140000000     36.010000000     25.240000000
  C       30.010000000     34.960000000     28.160000000
  C       30.190000000     34.120000000     29.280000000
  H       29.770000000     33.110000000     29.300000000
  C       30.080000000     31.420000000     24.550000000
  C       30.220000000     32.380000000     23.550000000
  H       29.800000000     33.380000000     23.650000000
  C       31.220000000     34.440000000     30.140000000
  H       31.490000000     33.740000000     30.930000000
  C       31.160000000     32.120000000     22.560000000
  H       31.480000000     32.960000000     21.960000000
  N       29.390000000     31.480000000     25.770000000
  N       29.260000000     34.780000000     26.990000000
  Zn      28.290000000     33.080000000     26.420000000
  C       34.340000000     38.610000000     26.500000000
  H       34.310000000     39.100000000     27.480000000
  C       33.700000000     37.660000000     24.670000000
  C       33.010000000     37.090000000     23.590000000
  H       31.960000000     36.820000000     23.650000000
  C       30.760000000     36.150000000     28.020000000
  C       31.770000000     36.480000000     28.930000000
  H       32.460000000     37.300000000     28.740000000
  C       33.770000000     36.670000000     22.520000000
  H       33.290000000     36.120000000     21.710000000
  C       32.050000000     35.550000000     29.910000000
  H       32.970000000     35.670000000     30.490000000
  N       30.450000000     36.720000000     26.790000000
  N       33.230000000     38.220000000     25.840000000
  Zn      31.260000000     38.470000000     26.190000000
  N       35.270000000     33.480000000     26.200000000
  C       34.490000000     33.320000000     27.470000000
  C       33.010000000     33.670000000     27.300000000
  C       32.360000000     33.200000000     26.010000000
  C       33.210000000     33.740000000     24.860000000
  C       34.640000000     33.180000000     24.880000000
  C       34.670000000     31.900000000     27.970000000
  C       35.030000000     34.260000000     28.550000000
  C       35.420000000     33.930000000     23.800000000
  C       34.690000000     31.670000000     24.600000000
  O       36.530000000     33.370000000     26.280000000
  H       32.310000000     32.110000000     26.010000000
  H       31.360000000     33.600000000     25.940000000
  H       32.460000000     33.250000000     28.140000000
  H       32.920000000     34.750000000     27.320000000
  H       32.750000000     33.520000000     23.910000000
  H       33.250000000     34.830000000     24.960000000
  H       35.500000000     34.970000000     24.110000000
  H       36.430000000     33.540000000     23.720000000
  H       34.920000000     33.850000000     22.840000000
  H       35.660000000     31.290000000     24.880000000
  H       33.940000000     31.120000000     25.170000000
  H       34.510000000     31.490000000     23.540000000
  H       34.150000000     31.200000000     27.320000000
  H       35.730000000     31.630000000     28.030000000
  H       34.250000000     31.850000000     28.970000000
  H       36.050000000     33.960000000     28.750000000
  H       35.000000000     35.290000000     28.210000000
  H       34.460000000     34.150000000     29.470000000
*